/*---------------------------------------------------------------------------*\
| =========                 |                                                 |
| \\      /  F ield         | OpenFOAM: The Open Source CFD Toolbox           |
|  \\    /   O peration     | Version:  2506                                  |
|   \\  /    A nd           | Website:  www.openfoam.com                      |
|    \\/     M anipulation  |                                                 |
\*---------------------------------------------------------------------------*/
Build  : _615aae61-20250627 OPENFOAM=2506 version=2506
Arch   : "LSB;label=32;scalar=64"
Exec   : checkMesh -region rock
Date   : Apr 13 2026
Time   : 15:51:31
Host   : 858544ff041d
PID    : 425
I/O    : uncollated
Case   : /home/openfoam/run/turku-AMK-borehole/v113
nProcs : 1
trapFpe: Floating point exception trapping enabled (FOAM_SIGFPE).
fileModificationChecking : Monitoring run-time modified files using timeStampMaster (fileModificationSkew 5, maxFileModificationPolls 20)
allowSystemOperations : Allowing user-supplied system call operations

// * * * * * * * * * * * * * * * * * * * * * * * * * * * * * * * * * * * * * //
Create time

Create mesh for time = 0

Check mesh...

Time = 0

Mesh stats rock
    points:           12462
    internal points:  0
    faces:            24230
    internal faces:   11770
    cells:            6000
    faces per cell:   6
    boundary patches: 6
    point zones:      0
    face zones:       0
    cell zones:       2

Overall number of cells of each type:
    hexahedra:     6000
    prisms:        0
    wedges:        0
    pyramids:      0
    tet wedges:    0
    tetrahedra:    0
    polyhedra:     0

Checking topology...
    Boundary definition OK.
    Cell to face addressing OK.
    Point usage OK.
    Upper triangular ordering OK.
    Face vertices OK.
    Number of regions: 1 (OK).

Checking patch topology for multiply connected surfaces...
    Patch               Faces    Points     Surface topology
    rock_inlet          30       62       ok (non-closed singly connected)  
    rock_outlet         30       62       ok (non-closed singly connected)  
    rock_outer          200      402      ok (non-closed singly connected)  
    rock_wedge1         6000     6231     ok (non-closed singly connected)  
    rock_wedge2         6000     6231     ok (non-closed singly connected)  
    rock_to_water       200      402      ok (non-closed singly connected)  
    ".*"                12460    12462    ok (closed singly connected)      


Checking faceZone topology for multiply connected surfaces...
    No faceZones found.

Checking basic cellZone addressing...
    CellZone            Cells        Points       Volume       BoundingBox
    water               0            0            0            (1e+150 1e+150 1e+150) (-1e+150 -1e+150 -1e+150)
    rock                6000         12462        8.3668439    (0 0.0999 -0.13522) (20 3.09705 0.13522)

Checking basic pointZone addressing...
    No pointZones found.

Checking geometry...
    Overall domain bounding box (0 0.0999 -0.13522) (20 3.09705 0.13522)
    Mesh has 2 geometric (non-empty/wedge) directions (1 1 0)
    Mesh has 3 solution (non-empty) directions (1 1 1)
    Wedge rock_wedge1 with angle 2.5000306 degrees
    Wedge rock_wedge2 with angle 2.5000306 degrees
    All edges aligned with or perpendicular to non-empty directions.
    Boundary openness (1.2804244e-18 -1.0928166e-14 7.0228664e-16) OK.
    Max cell openness = 1.736373e-16 OK.
    Max aspect ratio = 1.3347032 OK.
    Minimum face area = 0.000872. Maximum face area = 0.027044.  Face area magnitudes OK.
    Min volume = 0.00013069572. Max volume = 0.0026582523.  Total volume = 8.3668439.  Cell volumes OK.
    Mesh non-orthogonality Max: 0 average: 0
    Non-orthogonality check OK.
    Face pyramids OK.
    Max skewness = 0.10522726 OK.
    Coupled point location match (average 0) OK.

Mesh OK.

End

