/*---------------------------------------------------------------------------*\
| =========                 |                                                 |
| \\      /  F ield         | OpenFOAM: The Open Source CFD Toolbox           |
|  \\    /   O peration     | Version:  2506                                  |
|   \\  /    A nd           | Website:  www.openfoam.com                      |
|    \\/     M anipulation  |                                                 |
\*---------------------------------------------------------------------------*/
Build  : _615aae61-20250627 OPENFOAM=2506 version=2506
Arch   : "LSB;label=32;scalar=64"
Exec   : checkMesh
Date   : Apr 13 2026
Time   : 15:51:30
Host   : 858544ff041d
PID    : 422
I/O    : uncollated
Case   : /home/openfoam/run/turku-AMK-borehole/v113
nProcs : 1
trapFpe: Floating point exception trapping enabled (FOAM_SIGFPE).
fileModificationChecking : Monitoring run-time modified files using timeStampMaster (fileModificationSkew 5, maxFileModificationPolls 20)
allowSystemOperations : Allowing user-supplied system call operations

// * * * * * * * * * * * * * * * * * * * * * * * * * * * * * * * * * * * * * //
Create time

Create mesh for time = 0

Check mesh...

Time = 0

Mesh stats 
    points:           17487
    internal points:  0
    faces:            34443
    internal faces:   16957
    cells:            8600
    faces per cell:   5.9767442
    boundary patches: 10
    point zones:      0
    face zones:       0
    cell zones:       2

Overall number of cells of each type:
    hexahedra:     8400
    prisms:        200
    wedges:        0
    pyramids:      0
    tet wedges:    0
    tetrahedra:    0
    polyhedra:     0

Checking topology...
    Boundary definition OK.
    Cell to face addressing OK.
    Point usage OK.
    Upper triangular ordering OK.
    Face vertices OK.
    Number of regions: 1 (OK).

Checking patch topology for multiply connected surfaces...
    Patch               Faces    Points     Surface topology
    water_inlet         13       27       ok (non-closed singly connected)  
    rock_inlet          30       62       ok (non-closed singly connected)  
    water_outlet        13       27       ok (non-closed singly connected)  
    rock_outlet         30       62       ok (non-closed singly connected)  
    rock_outer          200      402      ok (non-closed singly connected)  
    water_wedge1        2600     2814     ok (non-closed singly connected)  
    water_wedge2        2600     2814     ok (non-closed singly connected)  
    rock_wedge1         6000     6231     ok (non-closed singly connected)  
    rock_wedge2         6000     6231     ok (non-closed singly connected)  
    axis                0        0        ok (empty)                        
    ".*"                17486    17487    ok (closed singly connected)      


Checking faceZone topology for multiply connected surfaces...
    No faceZones found.

Checking basic cellZone addressing...
    CellZone            Cells        Points       Volume       BoundingBox
    water               2600         5427         0.00871128   (0 0 -0.00436) (20 0.0999 0.00436)
    rock                6000         12462        8.3668439    (0 0.0999 -0.13522) (20 3.09705 0.13522)

Checking basic pointZone addressing...
    No pointZones found.

Checking geometry...
    Overall domain bounding box (0 0 -0.13522) (20 3.09705 0.13522)
    Mesh has 2 geometric (non-empty/wedge) directions (1 1 0)
    Mesh has 3 solution (non-empty) directions (1 1 1)
    Wedge water_wedge1 with angle 2.4990107 degrees
    Wedge water_wedge2 with angle 2.4990107 degrees
    Wedge rock_wedge1 with angle 2.5000306 degrees
    Wedge rock_wedge2 with angle 2.5000306 degrees
    All edges aligned with or perpendicular to non-empty directions.
    Boundary openness (3.9040689e-19 -8.56739e-15 2.9977921e-16) OK.
    Max cell openness = 1.736373e-16 OK.
    Max aspect ratio = 22.629986 OK.
    Minimum face area = 3.4088856e-06. Maximum face area = 0.027044.  Face area magnitudes OK.
    Min volume = 3.4088856e-07. Max volume = 0.0026582523.  Total volume = 8.3755552.  Cell volumes OK.
    Mesh non-orthogonality Max: 0 average: 0
    Non-orthogonality check OK.
    Face pyramids OK.
    Max skewness = 0.33079847 OK.
    Coupled point location match (average 0) OK.

Mesh OK.

End

