/*---------------------------------------------------------------------------*\
| =========                 |                                                 |
| \\      /  F ield         | OpenFOAM: The Open Source CFD Toolbox           |
|  \\    /   O peration     | Version:  2506                                  |
|   \\  /    A nd           | Website:  www.openfoam.com                      |
|    \\/     M anipulation  |                                                 |
\*---------------------------------------------------------------------------*/
Build  : _615aae61-20250627 OPENFOAM=2506 version=2506
Arch   : "LSB;label=32;scalar=64"
Exec   : checkMesh -region rock
Date   : Apr 13 2026
Time   : 14:24:52
Host   : 858544ff041d
PID    : 326
I/O    : uncollated
Case   : /home/openfoam/run/turku-AMK-borehole/borehole-openfoam-codes/v002-timeDependent
nProcs : 1
trapFpe: Floating point exception trapping enabled (FOAM_SIGFPE).
fileModificationChecking : Monitoring run-time modified files using timeStampMaster (fileModificationSkew 5, maxFileModificationPolls 20)
allowSystemOperations : Allowing user-supplied system call operations

// * * * * * * * * * * * * * * * * * * * * * * * * * * * * * * * * * * * * * //
Create time

Create mesh for time = 0

Check mesh...

Time = 0

Mesh stats rock
    points:           32882
    internal points:  0
    faces:            64440
    internal faces:   31560
    cells:            16000
    faces per cell:   6
    boundary patches: 6
    point zones:      0
    face zones:       0
    cell zones:       2

Overall number of cells of each type:
    hexahedra:     16000
    prisms:        0
    wedges:        0
    pyramids:      0
    tet wedges:    0
    tetrahedra:    0
    polyhedra:     0

Checking topology...
    Boundary definition OK.
    Cell to face addressing OK.
    Point usage OK.
    Upper triangular ordering OK.
    Face vertices OK.
    Number of regions: 1 (OK).

Checking patch topology for multiply connected surfaces...
    Patch               Faces    Points     Surface topology
    rock_inlet          40       82       ok (non-closed singly connected)  
    rock_outlet         40       82       ok (non-closed singly connected)  
    rock_outer          400      802      ok (non-closed singly connected)  
    rock_wedge1         16000    16441    ok (non-closed singly connected)  
    rock_wedge2         16000    16441    ok (non-closed singly connected)  
    rock_to_water       400      802      ok (non-closed singly connected)  
    ".*"                32880    32882    ok (closed singly connected)      


Checking faceZone topology for multiply connected surfaces...
    No faceZones found.

Checking basic cellZone addressing...
    CellZone            Cells        Points       Volume       BoundingBox
    water               0            0            0            (1e+150 1e+150 1e+150) (-1e+150 -1e+150 -1e+150)
    rock                16000        32882        8.3668439    (0 0.0999 -0.13522) (20 3.09705 0.13522)

Checking basic pointZone addressing...
    No pointZones found.

Checking geometry...
    Overall domain bounding box (0 0.0999 -0.13522) (20 3.09705 0.13522)
    Mesh has 2 geometric (non-empty/wedge) directions (1 1 0)
    Mesh has 3 solution (non-empty) directions (1 1 1)
    Wedge rock_wedge1 with angle 2.5000306 degrees
    Wedge rock_wedge2 with angle 2.5000306 degrees
    All edges aligned with or perpendicular to non-empty directions.
    Boundary openness (3.9450451e-20 -3.013746e-14 -5.4863763e-14) OK.
    Max cell openness = 1.5444544e-16 OK.
    Max aspect ratio = 1.4804458 OK.
    Minimum face area = 0.000436. Maximum face area = 0.020018588.  Face area magnitudes OK.
    Min volume = 4.4925405e-05. Max volume = 0.0010009294.  Total volume = 8.3668439.  Cell volumes OK.
    Mesh non-orthogonality Max: 0 average: 0
    Non-orthogonality check OK.
    Face pyramids OK.
    Max skewness = 0.10628663 OK.
    Coupled point location match (average 0) OK.

Mesh OK.

End

