/*---------------------------------------------------------------------------*\
| =========                 |                                                 |
| \\      /  F ield         | OpenFOAM: The Open Source CFD Toolbox           |
|  \\    /   O peration     | Version:  2506                                  |
|   \\  /    A nd           | Website:  www.openfoam.com                      |
|    \\/     M anipulation  |                                                 |
\*---------------------------------------------------------------------------*/
Build  : _615aae61-20250627 OPENFOAM=2506 version=2506
Arch   : "LSB;label=32;scalar=64"
Exec   : checkMesh -region water
Date   : Apr 13 2026
Time   : 14:24:52
Host   : 858544ff041d
PID    : 325
I/O    : uncollated
Case   : /home/openfoam/run/turku-AMK-borehole/borehole-openfoam-codes/v002-timeDependent
nProcs : 1
trapFpe: Floating point exception trapping enabled (FOAM_SIGFPE).
fileModificationChecking : Monitoring run-time modified files using timeStampMaster (fileModificationSkew 5, maxFileModificationPolls 20)
allowSystemOperations : Allowing user-supplied system call operations

// * * * * * * * * * * * * * * * * * * * * * * * * * * * * * * * * * * * * * //
Create time

Create mesh for time = 0

Check mesh...

Time = 0

Mesh stats water
    points:           12431
    internal points:  0
    faces:            24015
    internal faces:   11585
    cells:            6000
    faces per cell:   5.9333333
    boundary patches: 5
    point zones:      0
    face zones:       0
    cell zones:       2

Overall number of cells of each type:
    hexahedra:     5600
    prisms:        400
    wedges:        0
    pyramids:      0
    tet wedges:    0
    tetrahedra:    0
    polyhedra:     0

Checking topology...
    Boundary definition OK.
    Cell to face addressing OK.
    Point usage OK.
    Upper triangular ordering OK.
    Face vertices OK.
    Number of regions: 1 (OK).

Checking patch topology for multiply connected surfaces...
    Patch               Faces    Points     Surface topology
    water_inlet         15       31       ok (non-closed singly connected)  
    water_outlet        15       31       ok (non-closed singly connected)  
    water_wedge1        6000     6416     ok (non-closed singly connected)  
    water_wedge2        6000     6416     ok (non-closed singly connected)  
    water_to_rock       400      802      ok (non-closed singly connected)  
    ".*"                12430    12431    ok (closed singly connected)      


Checking faceZone topology for multiply connected surfaces...
    No faceZones found.

Checking basic cellZone addressing...
    CellZone            Cells        Points       Volume       BoundingBox
    water               6000         12431        0.00871128   (0 0 -0.00436) (20 0.0999 0.00436)
    rock                0            0            0            (1e+150 1e+150 1e+150) (-1e+150 -1e+150 -1e+150)

Checking basic pointZone addressing...
    No pointZones found.

Checking geometry...
    Overall domain bounding box (0 0 -0.00436) (20 0.0999 0.00436)
    Mesh has 2 geometric (non-empty/wedge) directions (1 1 0)
    Mesh has 3 solution (non-empty) directions (1 1 1)
    Wedge water_wedge1 with angle 2.4990107 degrees
    Wedge water_wedge2 with angle 2.4990107 degrees
    All edges aligned with or perpendicular to non-empty directions.
    Boundary openness (1.1361196e-20 -6.2023559e-15 2.9504052e-16) OK.
    Max cell openness = 1.3321619e-16 OK.
    Max aspect ratio = 15.015015 OK.
    Minimum face area = 1.93584e-06. Maximum face area = 0.000436.  Face area magnitudes OK.
    Min volume = 9.6792001e-08. Max volume = 2.806968e-06.  Total volume = 0.00871128.  Cell volumes OK.
    Mesh non-orthogonality Max: 0 average: 0
    Non-orthogonality check OK.
    Face pyramids OK.
    Max skewness = 0.33079847 OK.
    Coupled point location match (average 0) OK.

Mesh OK.

End

