/*---------------------------------------------------------------------------*\
| =========                 |                                                 |
| \\      /  F ield         | OpenFOAM: The Open Source CFD Toolbox           |
|  \\    /   O peration     | Version:  2506                                  |
|   \\  /    A nd           | Website:  www.openfoam.com                      |
|    \\/     M anipulation  |                                                 |
\*---------------------------------------------------------------------------*/
Build  : _615aae61-20250627 OPENFOAM=2506 version=2506
Arch   : "LSB;label=32;scalar=64"
Exec   : checkMesh
Date   : Apr 13 2026
Time   : 14:32:18
Host   : 858544ff041d
PID    : 360
I/O    : uncollated
Case   : /home/openfoam/run/turku-AMK-borehole/borehole-openfoam-codes/v002-stationary
nProcs : 1
trapFpe: Floating point exception trapping enabled (FOAM_SIGFPE).
fileModificationChecking : Monitoring run-time modified files using timeStampMaster (fileModificationSkew 5, maxFileModificationPolls 20)
allowSystemOperations : Allowing user-supplied system call operations

// * * * * * * * * * * * * * * * * * * * * * * * * * * * * * * * * * * * * * //
Create time

Create mesh for time = 0

Check mesh...

Time = 0

Mesh stats 
    points:           44511
    internal points:  0
    faces:            88055
    internal faces:   43545
    cells:            22000
    faces per cell:   5.9818182
    boundary patches: 10
    point zones:      0
    face zones:       0
    cell zones:       2

Overall number of cells of each type:
    hexahedra:     21600
    prisms:        400
    wedges:        0
    pyramids:      0
    tet wedges:    0
    tetrahedra:    0
    polyhedra:     0

Checking topology...
    Boundary definition OK.
    Cell to face addressing OK.
    Point usage OK.
    Upper triangular ordering OK.
    Face vertices OK.
    Number of regions: 1 (OK).

Checking patch topology for multiply connected surfaces...
    Patch               Faces    Points     Surface topology
    water_inlet         15       31       ok (non-closed singly connected)  
    rock_inlet          40       82       ok (non-closed singly connected)  
    water_outlet        15       31       ok (non-closed singly connected)  
    rock_outlet         40       82       ok (non-closed singly connected)  
    rock_outer          400      802      ok (non-closed singly connected)  
    water_wedge1        6000     6416     ok (non-closed singly connected)  
    water_wedge2        6000     6416     ok (non-closed singly connected)  
    rock_wedge1         16000    16441    ok (non-closed singly connected)  
    rock_wedge2         16000    16441    ok (non-closed singly connected)  
    axis                0        0        ok (empty)                        
    ".*"                44510    44511    ok (closed singly connected)      


Checking faceZone topology for multiply connected surfaces...
    No faceZones found.

Checking basic cellZone addressing...
    CellZone            Cells        Points       Volume       BoundingBox
    water               6000         12431        0.00871128   (0 0 -0.00436) (20 0.0999 0.00436)
    rock                16000        32882        8.3668439    (0 0.0999 -0.13522) (20 3.09705 0.13522)

Checking basic pointZone addressing...
    No pointZones found.

Checking geometry...
    Overall domain bounding box (0 0 -0.13522) (20 3.09705 0.13522)
    Mesh has 2 geometric (non-empty/wedge) directions (1 1 0)
    Mesh has 3 solution (non-empty) directions (1 1 1)
    Wedge water_wedge1 with angle 2.4990107 degrees
    Wedge water_wedge2 with angle 2.4990107 degrees
    Wedge rock_wedge1 with angle 2.5000306 degrees
    Wedge rock_wedge2 with angle 2.5000306 degrees
    All edges aligned with or perpendicular to non-empty directions.
    Boundary openness (6.0933441e-19 -4.0300492e-14 3.6759847e-17) OK.
    Max cell openness = 1.5444544e-16 OK.
    Max aspect ratio = 15.015015 OK.
    Minimum face area = 1.93584e-06. Maximum face area = 0.020018602.  Face area magnitudes OK.
    Min volume = 9.6792e-08. Max volume = 0.0010009301.  Total volume = 8.3755552.  Cell volumes OK.
    Mesh non-orthogonality Max: 0 average: 0
    Non-orthogonality check OK.
    Face pyramids OK.
    Max skewness = 0.33079847 OK.
    Coupled point location match (average 0) OK.

Mesh OK.

End

