/*---------------------------------------------------------------------------*\
| =========                 |                                                 |
| \\      /  F ield         | OpenFOAM: The Open Source CFD Toolbox           |
|  \\    /   O peration     | Version:  2506                                  |
|   \\  /    A nd           | Website:  www.openfoam.com                      |
|    \\/     M anipulation  |                                                 |
\*---------------------------------------------------------------------------*/
Build  : _615aae61-20250627 OPENFOAM=2506 version=2506
Arch   : "LSB;label=32;scalar=64"
Exec   : changeDictionary -region water
Date   : Apr 13 2026
Time   : 16:02:41
Host   : 858544ff041d
PID    : 519
I/O    : uncollated
Case   : /home/openfoam/run/turku-AMK-borehole/v213
nProcs : 1
trapFpe: Floating point exception trapping enabled (FOAM_SIGFPE).
fileModificationChecking : Monitoring run-time modified files using timeStampMaster (fileModificationSkew 5, maxFileModificationPolls 20)
allowSystemOperations : Allowing user-supplied system call operations

// * * * * * * * * * * * * * * * * * * * * * * * * * * * * * * * * * * * * * //
Create time

Create mesh water for time = 0

Read dictionary changeDictionaryDict with replacements for dictionaries 8(U T p_rgh p epsilon k alphat nut)
Reading polyMesh/boundary file to extract patch names
Loaded dictionary boundary with entries 5(water_inlet water_outlet water_wedge1 water_wedge2 water_to_rock)
Extracted patch groups:
    group wall with patches 1(water_to_rock)
    group wedge with patches 2(water_wedge1 water_wedge2)
Replacing entries in dictionary U
Loading dictionary U
Loaded dictionary U with entries 3(dimensions internalField boundaryField)
Merging entries from 2(internalField boundaryField)
Writing modified fieldDict U
Replacing entries in dictionary T
Loading dictionary T
Loaded dictionary T with entries 3(dimensions internalField boundaryField)
Merging entries from 2(internalField boundaryField)
Writing modified fieldDict T
Replacing entries in dictionary p_rgh
Loading dictionary p_rgh
Loaded dictionary p_rgh with entries 3(dimensions internalField boundaryField)
Merging entries from 2(internalField boundaryField)
Writing modified fieldDict p_rgh
Replacing entries in dictionary p
Loading dictionary p
Loaded dictionary p with entries 3(dimensions internalField boundaryField)
Merging entries from 2(internalField boundaryField)
Writing modified fieldDict p
Replacing entries in dictionary epsilon
Loading dictionary epsilon
Loaded dictionary epsilon with entries 3(dimensions internalField boundaryField)
Merging entries from 2(internalField boundaryField)
Writing modified fieldDict epsilon
Replacing entries in dictionary k
Loading dictionary k
Loaded dictionary k with entries 3(dimensions internalField boundaryField)
Merging entries from 2(internalField boundaryField)
Writing modified fieldDict k
Replacing entries in dictionary alphat
Loading dictionary alphat
Loaded dictionary alphat with entries 3(dimensions internalField boundaryField)
Merging entries from 2(internalField boundaryField)
Writing modified fieldDict alphat
Replacing entries in dictionary nut
Loading dictionary nut
Loaded dictionary nut with entries 3(dimensions internalField boundaryField)
Merging entries from 2(internalField boundaryField)
Writing modified fieldDict nut

End

