/*---------------------------------------------------------------------------*\
| =========                 |                                                 |
| \\      /  F ield         | OpenFOAM: The Open Source CFD Toolbox           |
|  \\    /   O peration     | Version:  2506                                  |
|   \\  /    A nd           | Website:  www.openfoam.com                      |
|    \\/     M anipulation  |                                                 |
\*---------------------------------------------------------------------------*/
Build  : _615aae61-20250627 OPENFOAM=2506 version=2506
Arch   : "LSB;label=32;scalar=64"
Exec   : checkMesh
Date   : Apr 13 2026
Time   : 16:02:40
Host   : 858544ff041d
PID    : 515
I/O    : uncollated
Case   : /home/openfoam/run/turku-AMK-borehole/v213
nProcs : 1
trapFpe: Floating point exception trapping enabled (FOAM_SIGFPE).
fileModificationChecking : Monitoring run-time modified files using timeStampMaster (fileModificationSkew 5, maxFileModificationPolls 20)
allowSystemOperations : Allowing user-supplied system call operations

// * * * * * * * * * * * * * * * * * * * * * * * * * * * * * * * * * * * * * //
Create time

Create mesh for time = 0

Check mesh...

Time = 0

Mesh stats 
    points:           7171
    internal points:  0
    faces:            14035
    internal faces:   6865
    cells:            3500
    faces per cell:   5.9714286
    boundary patches: 10
    point zones:      0
    face zones:       0
    cell zones:       2

Overall number of cells of each type:
    hexahedra:     3400
    prisms:        100
    wedges:        0
    pyramids:      0
    tet wedges:    0
    tetrahedra:    0
    polyhedra:     0

Checking topology...
    Boundary definition OK.
    Cell to face addressing OK.
    Point usage OK.
    Upper triangular ordering OK.
    Face vertices OK.
    Number of regions: 1 (OK).

Checking patch topology for multiply connected surfaces...
    Patch               Faces    Points     Surface topology
    water_inlet         10       21       ok (non-closed singly connected)  
    rock_inlet          25       52       ok (non-closed singly connected)  
    water_outlet        10       21       ok (non-closed singly connected)  
    rock_outlet         25       52       ok (non-closed singly connected)  
    rock_outer          100      202      ok (non-closed singly connected)  
    water_wedge1        1000     1111     ok (non-closed singly connected)  
    water_wedge2        1000     1111     ok (non-closed singly connected)  
    rock_wedge1         2500     2626     ok (non-closed singly connected)  
    rock_wedge2         2500     2626     ok (non-closed singly connected)  
    axis                0        0        ok (empty)                        
    ".*"                7170     7171     ok (closed singly connected)      


Checking faceZone topology for multiply connected surfaces...
    No faceZones found.

Checking basic cellZone addressing...
    CellZone            Cells        Points       Volume       BoundingBox
    water               1000         2121         0.00871128   (0 0 -0.00436) (20 0.0999 0.00436)
    rock                2500         5252         8.3668439    (0 0.0999 -0.13522) (20 3.09705 0.13522)

Checking basic pointZone addressing...
    No pointZones found.

Checking geometry...
    Overall domain bounding box (0 0 -0.13522) (20 3.09705 0.13522)
    Mesh has 2 geometric (non-empty/wedge) directions (1 1 0)
    Mesh has 3 solution (non-empty) directions (1 1 1)
    Wedge water_wedge1 with angle 2.4990107 degrees
    Wedge water_wedge2 with angle 2.4990107 degrees
    Wedge rock_wedge1 with angle 2.5000306 degrees
    Wedge rock_wedge2 with angle 2.5000306 degrees
    All edges aligned with or perpendicular to non-empty directions.
    Boundary openness (1.5982542e-19 2.6211768e-15 4.2737317e-16) OK.
    Max cell openness = 1.5296306e-16 OK.
    Max aspect ratio = 31.01945 OK.
    Minimum face area = 8.7160845e-06. Maximum face area = 0.054088.  Face area magnitudes OK.
    Min volume = 1.7432169e-06. Max volume = 0.0063588877.  Total volume = 8.3755552.  Cell volumes OK.
    Mesh non-orthogonality Max: 0 average: 0
    Non-orthogonality check OK.
    Face pyramids OK.
    Max skewness = 0.33079847 OK.
    Coupled point location match (average 0) OK.

Mesh OK.

End

